[General]
cmdenv-express-mode = true
cmdenv-autoflush = true
cmdenv-status-frequency = 10000000s

#tkenv-default-config = debug
#tkenv-default-run = 1
ned-path = .

network = RSUExampleScenario		
#comment:Road Side Unit (communication)

##########################################################
#            Simulation parameters                       #
##########################################################
debug-on-errors = true
print-undisposed = false
#comment: durata massima della simulazione
sim-time-limit = 10000s
#comment: aggiunta che evidenzia i percorsi dei messaggi tra veicoli tramite la road side unit 
#il percorso e' visibile anche sulla simulazione di sumo
#record-eventlog = true


**.scalar-recording = true
**.vector-recording = true

**.debug = false
**.coreDebug = false

*.playgroundSizeX = 2500m
*.playgroundSizeY = 2500m
*.playgroundSizeZ = 50m


##########################################################
# Annotation parameters                                  #
##########################################################
*.annotations.draw = false

##########################################################
# Obstacle parameters                                    #
##########################################################
*.obstacles.debug = false
*.obstacles.obstacles = xmldoc("config.xml", "//AnalogueModel[@type='SimpleObstacleShadowing']/obstacles")

##########################################################
#            WorldUtility parameters                     #
##########################################################
*.world.useTorus = false
*.world.use2D = false

##########################################################
#            TraCIScenarioManager parameters             #
##########################################################
*.manager.updateInterval = 1s 
#comment: starting value 0.1s
#comment: bitrate 27 e updateInterval 1s
#comment:bitrate 27 e updateInterval 0.2s
#comment: bitrate 7, update 0.5
*.manager.host = "localhost"
*.manager.port = 9999
*.manager.moduleType = "org.car2x.veins.nodes.Car"		
*.manager.moduleName = "node"
*.manager.moduleDisplayString = ""
#comment: *.manager.autoShutdown = true, to stop the module as soon as no more vehicles are in the simulation.
*.manager.autoShutdown = true
*.manager.margin = 25
*.manager.launchConfig = xmldoc("erlangen.launchd.xml")




##########################################################
#                       RSU SETTINGS                     #
#                                                        #
#                                                        #
##########################################################
*.rsu[0].mobility.x = 2000
*.rsu[0].mobility.y = 2000
*.rsu[0].mobility.z = 3
*.rsu[*].applType = "TraCIDemoRSU11p"
*.rsu[*].appl.debug = false
*.rsu[*].appl.headerLength = 256 bit
*.rsu[*].appl.sendBeacons = false
*.rsu[*].appl.dataOnSch = false
*.rsu[*].appl.sendData = true
*.rsu[*].appl.beaconInterval = 1s
*.rsu[*].appl.beaconPriority = 3
*.rsu[*].appl.dataPriority = 2
*.rsu[*].appl.maxOffset = 0.005s


##########################################################
#            11p specific parameters                     #
#                                                        #
#                    NIC-Settings                        #
##########################################################

*.connectionManager.pMax = 20mW 
#parameters to set the max interference distance by the global manager module  
*.connectionManager.sat = -89dBm
#parameters to set the max interference distance by the global manager module
*.connectionManager.alpha = 2.0
*.connectionManager.carrierFrequency = 5.890e9 Hz
*.connectionManager.sendDirect = true
#Network Interface Card
*.**.nic.mac1609_4.useServiceChannel = false
*.**.nic.mac1609_4.txPower = 20mW	
#transmission range
#intervallo di trasmissione definito come il punto in cui la probabilta' di 
#ricezione del messaggio e' zero
#calcolabile in base alla POTENZA di TRASMISSIONE dell'ANTENNA
#e alla SENSIBILITA' della RADIO, oltre che alla perdita 
#e alla dissolvenza, i paramentri "SimplePathlossModel" e
#"SimpleObstacleShadowing" in config.xml

#TODO	
#simulazione diverse cambiando questo e il bitrate, 
#aprire i file scalari .sca e vettoriali .vec ed estrarre i grafici
#controllare se c'e' perdita ad esempio
#comment: starting value 20mW		
*.**.nic.mac1609_4.bitrate = 27Mbps
#comment: starting bitrate value 18Mbps
#comment: bitrate=4.5
#comment: max value 27

*.**.nic.phy80211p.sensitivity = -89dBm
#sensibilita',sensitivity for changing maximum transmission range
*.**.nic.phy80211p.useThermalNoise = true
*.**.nic.phy80211p.thermalNoise = -110dBm
*.**.nic.phy80211p.decider = xmldoc("config.xml")
*.**.nic.phy80211p.analogueModels = xmldoc("config.xml")
*.**.nic.phy80211p.usePropagationDelay = true

##########################################################
#                    WaveAppLayer                        #
##########################################################
*.node[*].applType = "TraCIDemo11p"
*.node[*].appl.debug = false
*.node[*].appl.headerLength = 256 bit
*.node[*].appl.sendBeacons = false
*.node[*].appl.dataOnSch = false
*.node[*].appl.sendData = true
*.node[*].appl.beaconInterval = 1s
*.node[*].appl.beaconPriority = 3
*.node[*].appl.dataPriority = 2
*.node[*].appl.maxOffset = 0.005s

##########################################################
#                      Mobility                          #
##########################################################
*.node[*].veinsmobilityType = "org.car2x.veins.modules.mobility.traci.TraCIMobility"
*.node[*].mobilityType = "TraCIMobility"
*.node[*].mobilityType.debug = true
*.node[*].veinsmobilityType.debug = true
*.node[*].veinsmobility.x = 0
*.node[*].veinsmobility.y = 0
*.node[*].veinsmobility.z = 1.895
*.node[*].veinsmobility.accidentCount = 5
#comment: number of accidents 1 for node[*0]
*.node[*].veinsmobility.accidentStart = 85s		
#comment:starting value node[*0] = 75s
*.node[*].veinsmobility.accidentDuration = 43s		
#comment: starting value accident duration node[*0] = 30s

[Config nodebug]
description = "default settings"
**.debug = true
**.coreDebug = false
*.annotations.draw = false

[Config debug]
description = "(very slow!) draw and print additional debug information"
**.debug = true
**.coreDebug = true
*.annotations.draw = true

