<?xml version="1.0"?>

<routes>
	
<!--tipo dei veicoli-->
	<vType id="vtype0" accel="5.6" decel="4.5" sigma="0.5" length="2.5" minGap="2.5" maxSpeed="70" color="0,1,1"/>
   	<route id="route0" edges="-39539626 -5445204#2 -5445204#1 113939244#2 -126606716 23339459 30405358#1 85355912 85355911#0 85355911#1 30405356 5931612 30350450#0 30350450#1 30350450#2 4006702#0 4006702#1 4900043 4900041#1"/>
   	
   	<vType id="BUS" accel="2.1" decel="1.5" sigma="0.5" length="9.5" minGap="2.5" maxSpeed="35" color="1,1,0"/>
   	<route id="route1" edges="-39539626 -5445204#2 -5445204#1 113939244#2 -126606716 23339459 30405358#1 85355912 85355911#0 85355911#1 30405356 5931612 30350450#0 30350450#1 30350450#2 4006702#0 4006702#1 4900043 4900041#1"/>

   	<vType id="CarB" accel="3.1" decel="2.5" sigma="0.5" length="3" minGap="2.5" maxSpeed="100" color="1,0,0"/>
   	<route id="route2" edges="-39539626 -5445204#2 -5445204#1 113939244#2 -126606716 23339459 30405358#1 85355912 85355911#0 85355911#1 30405356 5931612 30350450#0 30350450#1 30350450#2 4006702#0 4006702#1 4900043 4900041#1"/>
 
<!--numero dei veicoli-->
   	
   	<flow id="flow0" type="vtype0" route="route0" begin="0" period="1" number="120" departlane="random" departpose="base" />
   	
   	<flow id="flow1" type="BUS" route="route1" begin="0" period="7" number="3" departlane="random" departpose="base" />
   	
   	<flow id="flow2" type="CarB" route="route2" begin="30" period="2" number="30" departlane="random" departpose="base" />
   	
</routes>
